/*--------------------------------*- C++ -*----------------------------------*\
  =========                 |
  \\      /  F ield         | OpenFOAM: The Open Source CFD Toolbox
   \\    /   O peration     | Website:  https://openfoam.org
    \\  /    A nd           | Version:  6
     \\/     M anipulation  |
\*---------------------------------------------------------------------------*/
FoamFile
{
    version     2.0;
    format      ascii;
    class       dictionary;
    location    "constant";
    object      PhaseFieldProperties;
}
// * * * * * * * * * * * * * * * * * * * * * * * * * * * * * * * * * * * * * //
// V_incident	(0 1 0);//(0 1 0);//NORMALISED IN CODE

// HS_a 70.0e-6;
// HS_bg 0.0;//20
// HS_velocity 0.0;//6.0;
// HS_lg 200e-6;
// HS_Q 0.0;//

// wavelength	1.070e-6;

// N_sub_divisions	0;
// e_num_density	  0;

// HS_oscAmpX 0.0;
// HS_oscAmpZ 0.0;

// HS_oscFreqX 0;
// HS_oscFreqZ 0;

// // Use local search: defaults to yes
// //useLocalSearch yes;

// // Print extra debug information: defaults to no
// debug no;
lasers
(
    // No lasers required
);
// timeVsLaserPosition
// {
//     file    "$FOAM_CASE/constant/timeVsLaserPosition";
//     outOfBounds clamp;
// }

// timeVsLaserPower
// {
//     file    "$FOAM_CASE/constant/timeVsLaserPower";
//     outOfBounds clamp;
// }

// V_incident	(0 1 0);//(0 1 0);//NORMALISED IN CODE

// laserRadius 0.1;

// N_sub_divisions	0;

// nRadial	1;

// nAngular	360;

// wavelength	1.070e-6;

// e_num_density	1;
// //elec_resistivity	1.0e-6;

// Radius_Flavour	2.0;

// useLocalSearch    false;//false;

// //N_sub_divisions    6;
