FoamFile
{
    format      ascii;
    class       dictionary;
    location    "constant";
    object      pyfoam_dynamic_mesh;
}
/*
    Reference file for sharing key parameters
*/

n_buffer_cells 2;
max_refinement_level 1;
cpu_distribute_interval 100;
refine_interval 100;