/*--------------------------------*- C++ -*----------------------------------*\
  =========                 |
  \\      /  F ield         | OpenFOAM: The Open Source CFD Toolbox
   \\    /   O peration     | Website:  https://openfoam.org
    \\  /    A nd           | Version:  10
     \\/     M anipulation  |
\*---------------------------------------------------------------------------*/
FoamFile
{
    format      ascii;
    class       dictionary;
    location    "system";
    object      decomposeParDict;
}
// * * * * * * * * * * * * * * * * * * * * * * * * * * * * * * * * * * * * * //

numberOfSubdomains 2;

method          hierarchical; // scotch;

distributor     hierarchical; // simple;

hierarchicalCoeffs
{
    n               (2 1 1);
    order           xyz;
}

constraints
{
   refinementHistory
   {
       //- Decompose cells such that all cell originating from single cell
       //  end up on same processor
       type    refinementHistory;
   }
}

// ************************************************************************* //
