FoamFile
{
    format      ascii;
    class       dictionary;
    location    "constant";
    object      flow_region_geom;
}

// Inlet height 
L0value  10e-3;  //-0.5e-3; // symmetric
L1value  30e-3; //50e-3;

L0_w_buffer -0.6e-3;
L1_w_buffer 0.6e-3;

buffer_value 0.05e-3; // +/- on walls

ymin_value    0;
ymax_value    40e-3; // 120e-3; // symmetric

xmin_value -35e-3;
xmax_value 35.0e-3;


bubble_center_x 0;
bubble_center_y 10e-3;
bubble_radius 2.6e-3;


pertubtation_velocity 1e-2;
pertubtation_velocity_neg -1e-2;
