/*--------------------------------*- C++ -*----------------------------------*\
  =========                 |
  \\      /  F ield         | OpenFOAM: The Open Source CFD Toolbox
   \\    /   O peration     | Website:  https://openfoam.org
    \\  /    A nd           | Version:  10
     \\/     M anipulation  |

Description:
    This is a dictionary made as a work-around to pyFoam ParsedParameter
    failing when a `$variable` is used.

    Instead, relevant dictionary variables are listed here; then imported
    using the `#include` directive
\*---------------------------------------------------------------------------*/
FoamFile
{
    format      ascii;
    class       dictionary;
    location    "initial";
    object      pyfoam_initial_values;
}
// * * * * * * * * * * * * * * * * * * * * * * * * * * * * * * * * * * * * * //
p_internal 1e5;
T_internal 293;
U_initial_vector_values (0 0 0);
B_target -99e-3;
// ************************************************************************* //